<?xml version="1.0" encoding="UTF-8"?>

<!-- generated on 2025-10-29 15:06:42 by Eclipse SUMO netconvert Version 1.24.0
<netconvertConfiguration xmlns:xsi="http://www.w3.org/2001/XMLSchema-instance" xsi:noNamespaceSchemaLocation="http://sumo.dlr.de/xsd/netconvertConfiguration.xsd">

    <input>
        <node-files value="nodes.nod.xml"/>
        <edge-files value="edges.edg.xml"/>
    </input>

    <output>
        <output-file value="simple_network.net.xml"/>
    </output>

    <junctions>
        <no-turnarounds value="true"/>
    </junctions>

</netconvertConfiguration>
-->

<net version="1.20" junctionCornerDetail="5" limitTurnSpeed="5.50" xmlns:xsi="http://www.w3.org/2001/XMLSchema-instance" xsi:noNamespaceSchemaLocation="http://sumo.dlr.de/xsd/net_file.xsd">

    <location netOffset="0.00,0.00" convBoundary="0.00,0.00,1000.00,1000.00" origBoundary="0.00,0.00,1000.00,1000.00" projParameter="!"/>

    <edge id=":J0_0" function="internal">
        <lane id=":J0_0_0" index="0" speed="7.65" length="12.89" shape="-1.60,4.00 -0.97,1.55 0.93,-0.20 4.10,-1.25 8.53,-1.60"/>
    </edge>
    <edge id=":J0_1" function="internal">
        <lane id=":J0_1_0" index="0" speed="5.97" length="11.90" shape="-1.60,4.00 -1.11,1.05 0.36,0.06 2.80,1.03 6.22,3.96"/>
    </edge>
    <edge id=":J1_0" function="internal">
        <lane id=":J1_0_0" index="0" speed="3.90" length="2.58" shape="1000.00,-1.60 1000.70,-1.50 1001.20,-1.20 1001.50,-0.70 1001.60,0.00"/>
    </edge>
    <edge id=":J2_0" function="internal">
        <lane id=":J2_0_0" index="0" speed="7.65" length="12.89" shape="1001.60,991.47 1001.25,995.90 1000.20,999.07 998.45,1000.97 996.00,1001.60"/>
    </edge>
    <edge id=":J2_1" function="internal">
        <lane id=":J2_1_0" index="0" speed="5.97" length="4.14" shape="996.04,993.78 998.74,996.93"/>
    </edge>
    <edge id=":J2_2" function="internal">
        <lane id=":J2_2_0" index="0" speed="5.97" length="7.75" shape="998.74,996.93 998.97,997.20 999.94,999.64 998.95,1001.11 996.00,1001.60"/>
    </edge>
    <edge id=":J3_0" function="internal">
        <lane id=":J3_0_0" index="0" speed="3.90" length="2.58" shape="0.00,1001.60 -0.70,1001.50 -1.20,1001.20 -1.50,1000.70 -1.60,1000.00"/>
    </edge>

    <edge id="E0" from="J0" to="J1" priority="1">
        <lane id="E0_0" index="0" speed="13.89" length="991.47" shape="8.53,-1.60 1000.00,-1.60"/>
    </edge>
    <edge id="E1" from="J1" to="J2" priority="1">
        <lane id="E1_0" index="0" speed="13.89" length="991.47" shape="1001.60,0.00 1001.60,991.47"/>
    </edge>
    <edge id="E2" from="J2" to="J3" priority="1">
        <lane id="E2_0" index="0" speed="13.89" length="996.00" shape="996.00,1001.60 0.00,1001.60"/>
    </edge>
    <edge id="E3" from="J3" to="J0" priority="1">
        <lane id="E3_0" index="0" speed="13.89" length="996.00" shape="-1.60,1000.00 -1.60,4.00"/>
    </edge>
    <edge id="E4" from="J0" to="J2" priority="1">
        <lane id="E4_0" index="0" speed="13.89" length="1399.81" shape="6.22,3.96 996.04,993.78"/>
    </edge>

    <junction id="J0" type="priority" x="0.00" y="0.00" incLanes="E3_0" intLanes=":J0_0_0 :J0_1_0" shape="-3.20,4.00 0.00,4.00 0.57,2.34 1.27,2.27 2.26,2.71 3.54,3.65 5.09,5.09 7.35,2.83 6.23,1.26 6.23,0.71 6.62,0.31 7.38,0.08 8.53,0.00 8.53,-3.20 4.94,-3.00 2.01,-2.40 -0.27,-1.40 -1.90,-0.00 -2.87,1.80">
        <request index="0" response="00" foes="00" cont="0"/>
        <request index="1" response="00" foes="00" cont="0"/>
    </junction>
    <junction id="J1" type="priority" x="1000.00" y="0.00" incLanes="E0_0" intLanes=":J1_0_0" shape="1000.00,0.00 1003.20,0.00 1002.84,-1.78 1002.40,-2.40 1001.78,-2.84 1000.98,-3.11 1000.00,-3.20">
        <request index="0" response="0" foes="0" cont="0"/>
    </junction>
    <junction id="J2" type="priority" x="1000.00" y="1000.00" incLanes="E1_0 E4_0" intLanes=":J2_0_0 :J2_2_0" shape="1003.20,991.47 1000.00,991.47 999.69,993.38 999.29,993.77 998.74,993.77 998.04,993.40 997.17,992.65 994.91,994.91 996.35,996.46 997.29,997.74 997.73,998.73 997.66,999.43 997.08,999.86 996.00,1000.00 996.00,1003.20 998.20,1002.87 1000.00,1001.90 1001.40,1000.27 1002.40,997.99 1003.00,995.06">
        <request index="0" response="00" foes="10" cont="0"/>
        <request index="1" response="01" foes="01" cont="1"/>
    </junction>
    <junction id="J3" type="priority" x="0.00" y="1000.00" incLanes="E2_0" intLanes=":J3_0_0" shape="0.00,1003.20 0.00,1000.00 -3.20,1000.00 -2.84,1001.78 -2.40,1002.40 -1.78,1002.84 -0.98,1003.11">
        <request index="0" response="0" foes="0" cont="0"/>
    </junction>

    <junction id=":J2_2_0" type="internal" x="998.74" y="996.93" incLanes=":J2_1_0 E1_0" intLanes=":J2_0_0"/>

    <connection from="E0" to="E1" fromLane="0" toLane="0" via=":J1_0_0" dir="l" state="M"/>
    <connection from="E1" to="E2" fromLane="0" toLane="0" via=":J2_0_0" dir="l" state="M"/>
    <connection from="E2" to="E3" fromLane="0" toLane="0" via=":J3_0_0" dir="l" state="M"/>
    <connection from="E3" to="E0" fromLane="0" toLane="0" via=":J0_0_0" dir="L" state="M"/>
    <connection from="E3" to="E4" fromLane="0" toLane="0" via=":J0_1_0" dir="l" state="M"/>
    <connection from="E4" to="E2" fromLane="0" toLane="0" via=":J2_1_0" dir="l" state="m"/>

    <connection from=":J0_0" to="E0" fromLane="0" toLane="0" dir="L" state="M"/>
    <connection from=":J0_1" to="E4" fromLane="0" toLane="0" dir="l" state="M"/>
    <connection from=":J1_0" to="E1" fromLane="0" toLane="0" dir="l" state="M"/>
    <connection from=":J2_0" to="E2" fromLane="0" toLane="0" dir="l" state="M"/>
    <connection from=":J2_1" to="E2" fromLane="0" toLane="0" via=":J2_2_0" dir="l" state="m"/>
    <connection from=":J2_2" to="E2" fromLane="0" toLane="0" dir="l" state="M"/>
    <connection from=":J3_0" to="E3" fromLane="0" toLane="0" dir="l" state="M"/>

</net>
